15
../Methylthiophene_Improper_Bend_Methyl_Phi_0.out
C         -0.00005        0.57666       -0.00108
C         -0.00009       -0.26768       -1.11430
C          0.00021       -1.65873       -0.82219
H         -0.00015        0.12066       -2.14407
C          0.00045       -1.90721        0.56192
S         -0.00025       -0.39430        1.46344
C          0.00046       -2.72309       -1.88424
H          0.00028       -2.27490       -2.89673
H         -0.89178       -3.37936       -1.81015
H          0.89307       -3.37886       -1.81025
C         -0.00005        2.02680       -0.00108
H         -1.00831        2.41384       -0.00108
H          0.50409        2.41384       -0.87426
H          0.50409        2.41384        0.87211
H          0.00059       -2.86537        1.09522
15
../Methylthiophene_Improper_Bend_Methyl_Phi_5.out
C          0.00888        0.57705       -0.00108
C          0.00883       -0.26729       -1.11430
C          0.00914       -1.65834       -0.82219
H          0.00877        0.12105       -2.14407
C          0.00937       -1.90682        0.56192
S          0.00867       -0.39391        1.46344
C          0.00938       -2.72270       -1.88424
H          0.00920       -2.27451       -2.89673
H         -0.88286       -3.37897       -1.81015
H          0.90200       -3.37846       -1.81025
C         -0.11751        2.02167       -0.00108
H         -1.15567        2.31936       -0.00108
H          0.35097        2.45118       -0.87426
H          0.35097        2.45118        0.87211
H          0.00952       -2.86498        1.09522
15
../Methylthiophene_Improper_Bend_Methyl_Phi_10.out
C          0.01773        0.57822       -0.00108
C          0.01769       -0.26613       -1.11430
C          0.01799       -1.65717       -0.82219
H          0.01763        0.12222       -2.14407
C          0.01823       -1.90565        0.56192
S          0.01753       -0.39274        1.46344
C          0.01823       -2.72153       -1.88424
H          0.01806       -2.27334       -2.89673
H         -0.87400       -3.37780       -1.81015
H          0.91085       -3.37730       -1.81025
C         -0.23408        2.00632       -0.00108
H         -1.29424        2.21240       -0.00108
H          0.19519        2.47503       -0.87426
H          0.19519        2.47503        0.87211
H          0.01837       -2.86381        1.09522
15
../Methylthiophene_Improper_Bend_Methyl_Phi_15.out
C          0.02645        0.58015       -0.00108
C          0.02641       -0.26419       -1.11430
C          0.02671       -1.65524       -0.82219
H          0.02635        0.12415       -2.14407
C          0.02695       -1.90372        0.56192
S          0.02625       -0.39081        1.46344
C          0.02695       -2.71960       -1.88424
H          0.02678       -2.27141       -2.89673
H         -0.86528       -3.37587       -1.81015
H          0.91957       -3.37537       -1.81025
C         -0.34887        1.98088       -0.00108
H         -1.42295        2.09377       -0.00108
H          0.03791        2.48521       -0.87426
H          0.03791        2.48521        0.87211
H          0.02709       -2.86188        1.09522
15
../Methylthiophene_Improper_Bend_Methyl_Phi_20.out
C          0.03497        0.58284       -0.00108
C          0.03492       -0.26151       -1.11430
C          0.03523       -1.65255       -0.82219
H          0.03487        0.12684       -2.14407
C          0.03547       -1.90103        0.56192
S          0.03477       -0.38812        1.46344
C          0.03547       -2.71691       -1.88424
H          0.03530       -2.26872       -2.89673
H         -0.85676       -3.37318       -1.81015
H          0.92809       -3.37268       -1.81025
C         -0.46100        1.94552       -0.00108
H         -1.54084        1.96437       -0.00108
H         -0.11965        2.48164       -0.87426
H         -0.11965        2.48164        0.87211
H          0.03561       -2.85919        1.09522
15
../Methylthiophene_Improper_Bend_Methyl_Phi_25.out
C          0.04322        0.58626       -0.00108
C          0.04318       -0.25809       -1.11430
C          0.04348       -1.64914       -0.82219
H          0.04312        0.13025       -2.14407
C          0.04372       -1.89762        0.56192
S          0.04302       -0.38470        1.46344
C          0.04372       -2.71349       -1.88424
H          0.04355       -2.26530       -2.89673
H         -0.84851       -3.36977       -1.81015
H          0.93634       -3.36926       -1.81025
C         -0.56963        1.90053       -0.00108
H         -1.64700        1.82519       -0.00108
H         -0.27630        2.46436       -0.87426
H         -0.27630        2.46436        0.87211
H          0.04386       -2.85577        1.09522
