15
../Methylthiophene_Improper_Bend_Methyl_Phi_60.out
C          0.08862        0.62786       -0.00108
C          0.08858       -0.21649       -1.11430
C          0.08888       -1.60754       -0.82219
H          0.08852        0.17185       -2.14407
C          0.08912       -1.85602        0.56192
S          0.08842       -0.34310        1.46344
C          0.08912       -2.67190       -1.88424
H          0.08895       -2.22370       -2.89673
H         -0.80311       -3.32817       -1.81015
H          0.98174       -3.32766       -1.81025
C         -1.16723        1.35293       -0.00108
H         -2.00655        0.67326       -0.00108
H         -1.25035        1.98304       -0.87426
H         -1.25035        1.98304        0.87211
H          0.08926       -2.81418        1.09522
