15
../Methylthiophene_Improper_Bend_Methyl_Phi_25.out
C          0.04322        0.58626       -0.00108
C          0.04318       -0.25809       -1.11430
C          0.04348       -1.64914       -0.82219
H          0.04312        0.13025       -2.14407
C          0.04372       -1.89762        0.56192
S          0.04302       -0.38470        1.46344
C          0.04372       -2.71349       -1.88424
H          0.04355       -2.26530       -2.89673
H         -0.84851       -3.36977       -1.81015
H          0.93634       -3.36926       -1.81025
C         -0.56963        1.90053       -0.00108
H         -1.64700        1.82519       -0.00108
H         -0.27630        2.46436       -0.87426
H         -0.27630        2.46436        0.87211
H          0.04386       -2.85577        1.09522
