15
../Methylthiophene_Improper_Bend_Methyl_Phi_0.out
C         -0.00005        0.57666       -0.00108
C         -0.00009       -0.26768       -1.11430
C          0.00021       -1.65873       -0.82219
H         -0.00015        0.12066       -2.14407
C          0.00045       -1.90721        0.56192
S         -0.00025       -0.39430        1.46344
C          0.00046       -2.72309       -1.88424
H          0.00028       -2.27490       -2.89673
H         -0.89178       -3.37936       -1.81015
H          0.89307       -3.37886       -1.81025
C         -0.00005        2.02680       -0.00108
H         -1.00831        2.41384       -0.00108
H          0.50409        2.41384       -0.87426
H          0.50409        2.41384        0.87211
H          0.00059       -2.86537        1.09522
