76

C -4.424349 1.650401 -0.001579
C -4.304675 0.224295 -0.002310
C -3.168669 2.358214 -0.001196
C -3.121668 -0.486764 -0.001925
H -5.201348 -0.412561 -0.003091
C -1.932503 1.614553 -0.000329
C -1.863637 0.180081 -0.000605
C -0.675041 2.280312 0.001057
C -0.627881 -0.560963 0.000245
C 0.510818 1.571755 0.001828
C 0.626283 0.147648 0.001267
H 1.408543 2.208048 0.002853
C -3.064466 3.850612 -0.002308
C -0.563998 3.757694 0.001671
N -1.777503 4.442254 -0.000207
C -3.239951 -1.965734 -0.002711
C -0.738745 -2.052138 0.000278
N -2.020645 -2.645829 -0.001493
O -4.033941 4.606136 -0.005209
O 0.507544 4.359711 0.003324
O -4.319788 -2.553203 -0.004138
O 0.216649 -2.825572 0.001742
C -1.680641 5.905505 -0.000540
H -2.702695 6.314865 -0.002119
H -1.119573 6.240891 -0.893769
H -1.122033 6.241406 0.894029
C -2.046356 -4.111335 -0.001737
H -3.104900 -4.419642 -0.003189
H -1.523903 -4.499548 0.893112
H -1.521531 -4.499282 -0.895313
C 2.022636 -0.337451 0.001534
S 3.290346 0.895474 0.002481
C 4.615850 -0.279944 0.002348
C 2.642198 -1.595680 0.000940
C 4.050734 -1.564065 0.001408
H 2.063902 -2.520014 0.000333
H 4.668352 -2.462260 0.001231
C 5.990190 0.266233 0.002544
C 6.025073 1.704560 0.002818
C 7.174246 2.465396 0.001626
H 5.091356 2.285734 0.003826
C 7.271841 -0.397564 0.001774
C 8.439439 1.827003 -0.000149
C 8.480620 0.394877 -0.000055
C 9.780164 -0.199005 -0.001994
C 9.625090 2.606941 -0.001916
C 10.942792 0.581747 -0.003894
C 10.876193 1.985060 -0.003814
H 11.904716 0.048769 -0.005399
H 11.778761 2.612707 -0.005208
C 7.051008 3.953856 0.001918
C 9.550107 4.095575 -0.001784
N 8.263118 4.671391 0.000176
C 7.446230 -1.883953 0.003455
C 9.948886 -1.667895 -0.002115
N 8.762426 -2.406838 0.000769
O 5.963128 4.521686 0.003515
O 10.547265 4.811092 -0.003277
O 6.516179 -2.687691 0.007298
O 11.042613 -2.229243 -0.004191
C 8.206547 6.135253 0.000326
H 7.143284 6.427316 0.001951
H 8.721348 6.532732 -0.895274
H 8.724066 6.532647 0.894396
C 8.929599 -3.864116 0.001593
H 7.928568 -4.322401 0.003941
H 9.506555 -4.172135 0.894566
H 9.503081 -4.173486 -0.893143
C -5.821758 2.127360 -0.000739
C -6.450966 3.380791 0.000679
C -7.869040 3.328111 0.001722
H -5.873370 4.305463 0.000838
C -8.360244 2.033408 0.001046
H -8.508873 4.221114 0.002861
S -7.096115 0.870511 -0.000778
H -9.405406 1.698268 0.001487
