26

C	-5.779112	-0.512756	0.125799
C	-5.199553	0.746748	0.077868
S	-4.541129	-1.791863	0.158038
C	-3.772382	0.726050	0.072321
H	-5.775127	1.675818	0.046219
C	-3.229902	-0.606036	0.128011
C	-1.844602	-0.830439	0.106327
C	-2.930917	1.872741	-0.003010
C	-1.543308	1.648414	-0.029023
C	-1.001602	0.314673	0.029606
O	-3.586803	3.066349	-0.022429
O	-1.195915	-2.032150	0.124799
C	-1.798535	-3.141146	0.780862
H	-1.009884	-3.911507	0.873865
H	-2.639360	-3.570865	0.193393
H	-2.163903	-2.866609	1.793808
C	-2.937084	4.233021	-0.512079
H	-3.722360	5.006603	-0.602413
H	-2.481131	4.058738	-1.509996
H	-2.159288	4.603599	0.190508
C	0.425153	0.297481	0.021624
S	-0.230263	2.836014	-0.071831
C	0.998879	1.560470	-0.034210
H	1.004424	-0.634116	0.056178
H	-6.821957	-0.793295	0.138935
H	2.044556	1.830085	-0.050583
