aromodel/code/Andrew_PTB7/XYZ_Files/fin_bdt_Phi_0_Theta_0_fin_ftt.xyz
 OpenBabel10202323033D

 42 46  0  0  0  0  0  0  0  0999 V2000
   -8.1818   -2.3839    0.1879 C   0  0  0  0  0  0  0  0  0  0  0  0
   -7.5934   -1.1285    0.1395 C   0  0  0  0  0  0  0  0  0  0  0  0
   -6.9528   -3.6717    0.2189 S   0  0  0  0  0  0  0  0  0  0  0  0
   -6.1665   -1.1592    0.1326 C   0  0  0  0  0  0  0  0  0  0  0  0
   -8.1646   -0.1921    0.1090 H   0  0  0  0  0  0  0  0  0  0  0  0
   -5.6333   -2.4951    0.1877 C   0  0  0  0  0  0  0  0  0  0  0  0
   -4.2496   -2.7292    0.1648 C   0  0  0  0  0  0  0  0  0  0  0  0
   -5.3171   -0.0185    0.0566 C   0  0  0  0  0  0  0  0  0  0  0  0
   -3.9311   -0.2525    0.0293 C   0  0  0  0  0  0  0  0  0  0  0  0
   -3.3987   -1.5900    0.0873 C   0  0  0  0  0  0  0  0  0  0  0  0
   -5.9646    1.1797    0.0378 O   0  0  0  0  0  0  0  0  0  0  0  0
   -3.6094   -3.9354    0.1826 O   0  0  0  0  0  0  0  0  0  0  0  0
   -4.2191   -5.0402    0.8391 C   0  0  0  0  0  0  0  0  0  0  0  0
   -3.4340   -5.8140    0.9368 H   0  0  0  0  0  0  0  0  0  0  0  0
   -5.0605   -5.4679    0.2512 H   0  0  0  0  0  0  0  0  0  0  0  0
   -4.5869   -4.7627    1.8506 H   0  0  0  0  0  0  0  0  0  0  0  0
   -5.3071    2.3418   -0.4523 C   0  0  0  0  0  0  0  0  0  0  0  0
   -6.0882    3.1198   -0.5476 H   0  0  0  0  0  0  0  0  0  0  0  0
   -4.8477    2.1639   -1.4483 H   0  0  0  0  0  0  0  0  0  0  0  0
   -4.5286    2.7096    0.2508 H   0  0  0  0  0  0  0  0  0  0  0  0
   -1.9721   -1.6172    0.0781 C   0  0  0  0  0  0  0  0  0  0  0  0
   -2.6098    0.9259   -0.0147 S   0  0  0  0  0  0  0  0  0  0  0  0
   -1.3896   -0.3583    0.0218 C   0  0  0  0  0  0  0  0  0  0  0  0
   -1.3988   -2.5522    0.1111 H   0  0  0  0  0  0  0  0  0  0  0  0
   -9.2446   -2.6524    0.2018 H   0  0  0  0  0  0  0  0  0  0  0  0
    0.0000    0.0000    0.0000 C   0  0  0  0  0  0  0  0  0  0  0  0
    1.2486   -1.2370    0.0452 S   0  0  0  0  0  0  0  0  0  0  0  0
    2.5780   -0.0861   -0.0093 C   0  0  0  0  0  0  0  0  0  0  0  0
    0.6131    1.2567   -0.0568 C   0  0  0  0  0  0  0  0  0  0  0  0
    2.0544    1.2297   -0.0607 C   0  0  0  0  0  0  0  0  0  0  0  0
    0.1934    2.6152   -0.1149 C   0  0  0  0  0  0  0  0  0  0  0  0
    1.2628    3.5314   -0.1590 C   0  0  0  0  0  0  0  0  0  0  0  0
    2.7560    2.7390   -0.1285 S   0  0  0  0  0  0  0  0  0  0  0  0
    1.1458    5.0004   -0.2262 C   0  0  0  0  0  0  0  0  0  0  0  0
    0.0443    5.5318   -0.2470 O   0  0  0  0  0  0  0  0  0  0  0  0
    2.2771    5.7505   -0.2669 O   0  0  0  0  0  0  0  0  0  0  0  0
   -1.0754    3.0722   -0.1326 F   0  0  0  0  0  0  0  0  0  0  0  0
    2.2916    7.1269   -0.3362 C   0  0  0  0  0  0  0  0  0  0  0  0
    3.3526    7.4368   -0.3550 H   0  0  0  0  0  0  0  0  0  0  0  0
    1.7835    7.5909    0.5379 H   0  0  0  0  0  0  0  0  0  0  0  0
    1.7782    7.5006   -1.2497 H   0  0  0  0  0  0  0  0  0  0  0  0
    3.6173   -0.4310    0.0007 H   0  0  0  0  0  0  0  0  0  0  0  0
  1 25  1  0  0  0  0
  1  3  1  0  0  0  0
  2  1  2  0  0  0  0
  4  2  1  0  0  0  0
  4  6  1  0  0  0  0
  5  2  1  0  0  0  0
  6  3  1  0  0  0  0
  7 12  1  0  0  0  0
  7  6  2  0  0  0  0
  8  4  2  0  0  0  0
  9  8  1  0  0  0  0
  9 10  2  0  0  0  0
 10  7  1  0  0  0  0
 11  8  1  0  0  0  0
 12 13  1  0  0  0  0
 13 14  1  0  0  0  0
 13 16  1  0  0  0  0
 15 13  1  0  0  0  0
 17 11  1  0  0  0  0
 17 20  1  0  0  0  0
 18 17  1  0  0  0  0
 19 17  1  0  0  0  0
 21 10  1  0  0  0  0
 21 24  1  0  0  0  0
 22 23  1  0  0  0  0
 22  9  1  0  0  0  0
 23 21  2  0  0  0  0
 26 23  1  0  0  0  0
 26 27  1  0  0  0  0
 28 42  1  0  0  0  0
 28 27  1  0  0  0  0
 29 26  2  0  0  0  0
 30 29  1  0  0  0  0
 30 28  2  0  0  0  0
 31 29  1  0  0  0  0
 32 33  1  0  0  0  0
 32 31  2  0  0  0  0
 33 30  1  0  0  0  0
 34 32  1  0  0  0  0
 35 34  2  0  0  0  0
 36 34  1  0  0  0  0
 37 31  1  0  0  0  0
 38 36  1  0  0  0  0
 38 40  1  0  0  0  0
 39 38  1  0  0  0  0
 41 38  1  0  0  0  0
M  END
