41
hydrogenated-rotation-run/Dimethyl_Naphthalene_Dicarboximide_Phi_5_Theta_180_Thiophene_Hydrogenated.out
C          0.00148       -6.74140        0.25693
C          0.00160       -6.15564        1.56268
C          0.00193       -5.79145       -0.82720
C          0.00137       -4.80379        1.84125
H          0.00179       -6.82152        2.44071
C          0.00123       -4.37864       -0.53549
C          0.00087       -3.83803        0.79500
C          0.00066       -3.41306       -1.58053
C          0.00019       -2.42647        1.08437
C          0.00005       -2.05935       -1.30526
C          0.00000       -1.47822        0.00000
H         -0.00037       -1.39478       -2.18427
C          0.00377       -6.18799       -2.26972
C          0.00077       -3.79816       -3.01115
N          0.00247       -5.17000       -3.25462
C          0.00143       -4.42499        3.27577
C         -0.00058       -2.03663        2.52795
N          0.00040       -3.04916        3.51310
O          0.00662       -7.35313       -2.66105
O         -0.00017       -2.98685       -3.93441
O          0.00215       -5.24895        4.18806
O         -0.00201       -0.87883        2.94084
C          0.00351       -5.56380       -4.66721
H          0.00466       -6.66409       -4.71242
H          0.89761       -5.14710       -5.16923
H         -0.89094       -5.14879       -5.16999
C         -0.00004       -2.58749        4.90423
H          0.00102       -3.48333        5.54683
H         -0.89455       -1.96497        5.09600
H          0.89307       -1.96293        5.09586
C          0.00000        0.00000        0.00000
S          0.06893        0.79017        1.58053
C          0.21164        2.42165        0.90491
C          0.08681        0.99421       -0.98540
C          0.20178        2.30943       -0.49353
H          0.06630        0.75945       -2.05993
H          0.27849        3.18702       -1.15259
H          0.28831        3.29899        1.55602
H         -0.89678       -7.36159        0.14988
H          0.90010       -7.36119        0.15066
H         -1.08000       -1.47883       -0.00053
