41
hydrogenated-rotation-run/Dimethyl_Naphthalene_Dicarboximide_Phi_15_Theta_20_Thiophene_Hydrogenated.out
C          0.08649       -6.74140       -0.24194
C          0.53296       -6.15564       -1.46898
C         -0.28473       -5.79145        0.77665
C          0.62845       -4.80379       -1.73068
H          0.83309       -6.82152       -2.29413
C         -0.18430       -4.37864        0.50277
C          0.27109       -3.83803       -0.74735
C         -0.54119       -3.41306        1.48499
C          0.37070       -2.42647       -1.01904
C         -0.44647       -2.05935        1.22653
C          0.00000       -1.47822        0.00000
H         -0.74672       -1.39478        2.05267
C         -0.77983       -6.18799        2.13155
C         -1.03060       -3.79816        2.82930
N         -1.11546       -5.17000        3.05750
C          1.11903       -4.42499       -3.07871
C          0.86515       -2.03663       -2.37530
N          1.20118       -3.04916       -3.30137
O         -0.91636       -7.35313        2.49830
O         -1.34549       -2.98685        3.69719
O          1.43038       -5.24895       -3.93622
O          1.00771       -0.87883       -2.76281
C         -1.59958       -5.56380        4.38454
H         -1.61612       -6.66409        4.42664
H         -2.61146       -5.14710        4.55049
H         -0.93104       -5.14879        5.16292
C          1.67738       -2.58749       -4.60845
H          1.89617       -3.48333       -5.21267
H          2.58353       -1.96497       -4.48272
H          0.90367       -1.96293       -5.09399
C          0.00000        0.00000        0.00000
S          0.20509        0.76620        1.58053
C          0.62894        2.34811        0.90491
C          0.25814        0.96403       -0.98540
C          0.59974        2.23931       -0.49353
H          0.19717        0.73640       -2.05993
H          0.82768        3.09024       -1.15259
H          0.85680        3.19881        1.55602
H          0.89396       -7.36159        0.16587
H         -0.79429       -7.36119       -0.44942
H          1.01469       -1.47883        0.36988
