41
hydrogenated-rotation-run/Dimethyl_Naphthalene_Dicarboximide_Phi_25_Theta_290_Thiophene_Hydrogenated.out
C         -0.24194       -6.74140       -0.08649
C         -1.46898       -6.15564       -0.53296
C          0.77665       -5.79145        0.28473
C         -1.73068       -4.80379       -0.62845
H         -2.29413       -6.82152       -0.83309
C          0.50277       -4.37864        0.18430
C         -0.74735       -3.83803       -0.27109
C          1.48499       -3.41306        0.54119
C         -1.01904       -2.42647       -0.37070
C          1.22653       -2.05935        0.44647
C          0.00000       -1.47822        0.00000
H          2.05267       -1.39478        0.74672
C          2.13155       -6.18799        0.77983
C          2.82930       -3.79816        1.03060
N          3.05750       -5.17000        1.11546
C         -3.07871       -4.42499       -1.11903
C         -2.37530       -2.03663       -0.86515
N         -3.30137       -3.04916       -1.20118
O          2.49830       -7.35313        0.91636
O          3.69719       -2.98685        1.34549
O         -3.93622       -5.24895       -1.43038
O         -2.76281       -0.87883       -1.00771
C          4.38454       -5.56380        1.59958
H          4.42664       -6.66409        1.61612
H          4.55049       -5.14710        2.61146
H          5.16292       -5.14879        0.93104
C         -4.60845       -2.58749       -1.67738
H         -5.21267       -3.48333       -1.89617
H         -4.48272       -1.96497       -2.58353
H         -5.09399       -1.96293       -0.90367
C          0.00000        0.00000        0.00000
S          0.33503        0.71894        1.58053
C          1.02713        2.20323        0.90491
C          0.42162        0.90456       -0.98540
C          0.97949        2.10114       -0.49353
H          0.32205        0.69098       -2.05993
H          1.35172        2.89957       -1.15259
H          1.39925        3.00143        1.55602
H          0.16587       -7.36159       -0.89396
H         -0.44942       -7.36119        0.79429
H          0.36988       -1.47883       -1.01469
