41
hydrogenated-rotation-run/Dimethyl_Naphthalene_Dicarboximide_Phi_15_Theta_0_Thiophene_Hydrogenated.out
C          0.58608       -6.71588       -0.25693
C          0.53490       -6.13235       -1.56268
C          0.50283       -5.76958        0.82720
C          0.41731       -4.78563       -1.84125
H          0.59275       -6.79572       -2.44071
C          0.38040       -4.36208        0.53549
C          0.33364       -3.82350       -0.79500
C          0.29681       -3.40013        1.58053
C          0.21130       -2.41725       -1.08437
C          0.17944       -2.05152        1.30526
C          0.12884       -1.47259        0.00000
H          0.12193       -1.38944        2.18427
C          0.53556       -6.16477        2.26972
C          0.33027       -3.78378        3.01115
N          0.44814       -5.15055        3.25462
C          0.38423       -4.40827       -3.27577
C          0.17808       -2.02883       -2.52795
N          0.26535       -3.03759       -3.51310
O          0.63427       -7.32573        2.66105
O          0.26049       -2.97547        3.93441
O          0.45533       -5.22916       -4.18806
O          0.07859       -0.87531       -2.94084
C          0.48142       -5.54293        4.66721
H          0.57617       -6.63913        4.71242
H         -0.44560       -5.20575        5.16923
H          1.33629       -5.05154        5.16999
C          0.22555       -2.57764       -4.90423
H          0.30257       -3.47016       -5.54683
H          1.06240       -1.87953       -5.09600
H         -0.71859       -2.03330       -5.09586
C          0.00000        0.00000        0.00000
S          0.13753        0.78116        1.58053
C          0.42190        2.39399        0.90491
C          0.17313        0.98286       -0.98540
C          0.40229        2.28306       -0.49353
H          0.13224        0.75079       -2.05993
H          0.55520        3.15062       -1.15259
H          0.57474        3.26131        1.55602
H          1.53497       -7.25542       -0.14988
H         -0.25511       -7.41163       -0.15066
H          1.20478       -1.37908        0.00053
