41
hydrogenated-rotation-run/Dimethyl_Naphthalene_Dicarboximide_Phi_20_Theta_230_Thiophene_Hydrogenated.out
C         -0.19587       -6.74140        0.16628
C         -1.19605       -6.15564        1.00570
C          0.63491       -5.79145       -0.53023
C         -1.40960       -4.80379        1.18459
H         -1.86854       -6.82152        1.57023
C          0.41100       -4.37864       -0.34327
C         -0.60844       -3.83803        0.51168
C          1.21118       -3.41306       -1.01544
C         -0.83056       -2.42647        0.69717
C          0.99991       -2.05935       -0.83897
C          0.00000       -1.47822        0.00000
H          1.67301       -1.39478       -1.40430
C          1.74113       -6.18799       -1.45606
C          2.30717       -3.79816       -1.93494
N          2.49477       -5.17000       -2.09014
C         -2.50847       -4.42499        2.10672
C         -1.93689       -2.03663        1.62449
N         -2.69094       -3.04916        2.25849
O          2.04274       -7.35313       -1.70541
O          3.01382       -2.98685       -2.52912
O         -3.20686       -5.24895        2.69368
O         -2.25411       -0.87883        1.88880
C          3.57754       -5.56380       -2.99733
H          3.61292       -6.66409       -3.02552
H          4.53683       -5.14710       -2.63511
H          3.38776       -5.14879       -4.00570
C         -3.75688       -2.58749        3.15235
H         -4.24846       -3.48333        3.56622
H         -4.47876       -1.96497        2.59038
H         -3.32960       -1.96293        3.95969
C          0.00000        0.00000        0.00000
S          0.27109        0.74540        1.58053
C          0.83120        2.28436        0.90491
C          0.34118        0.93786       -0.98540
C          0.79263        2.17852       -0.49353
H          0.26060        0.71642       -2.05993
H          1.09386        3.00635       -1.15259
H          1.13233        3.11196        1.55602
H         -0.69125       -7.36159       -0.59063
H          0.46316       -7.36119        0.78636
H         -0.69380       -1.47883       -0.82767
