41
hydrogenated-rotation-run/Dimethyl_Naphthalene_Dicarboximide_Phi_10_Theta_210_Thiophene_Hydrogenated.out
C         -0.12718       -6.74140        0.22324
C         -0.77995       -6.15564        1.35412
C          0.41527       -5.79145       -0.71541
C         -0.91944       -4.80379        1.59526
H         -1.21880       -6.82152        2.11461
C          0.26881       -4.37864       -0.46313
C         -0.39674       -3.83803        0.68893
C          0.79083       -3.41306       -1.36845
C         -0.54203       -2.42647        0.93919
C          0.65267       -2.05935       -1.13036
C          0.00000       -1.47822        0.00000
H          1.09181       -1.39478       -1.89182
C          1.13812       -6.18799       -1.96375
C          1.50624       -3.79816       -2.60735
N          1.62944       -5.17000       -2.81735
C         -1.63665       -4.42499        2.83762
C         -1.26447       -2.03663        2.18898
N         -1.75621       -3.04916        3.04264
O          1.33626       -7.35313       -2.30122
O          1.96706       -2.98685       -3.40739
O         -2.09217       -5.24895        3.62804
O         -1.47216       -0.87883        2.54584
C          2.33664       -5.56380       -4.04016
H          2.36024       -6.66409       -4.07875
H          3.36197       -5.14710       -4.02788
H          1.81342       -5.14879       -4.92281
C         -2.45215       -2.58749        4.24717
H         -2.77253       -3.48333        4.80421
H         -3.32270       -1.96497        3.96599
H         -1.77451       -1.96293        4.85968
C          0.00000        0.00000        0.00000
S          0.13753        0.78116        1.58053
C          0.42190        2.39399        0.90491
C          0.17313        0.98286       -0.98540
C          0.40229        2.28306       -0.49353
H          0.13224        0.75079       -2.05993
H          0.55520        3.15062       -1.15259
H          0.57474        3.26131        1.55602
H         -0.85157       -7.36159       -0.31859
H          0.70418       -7.36119        0.58052
H         -0.93504       -1.47883       -0.54046
