41
hydrogenated-rotation-run/Dimethyl_Naphthalene_Dicarboximide_Phi_10_Theta_130_Thiophene_Hydrogenated.out
C          0.19777       -6.74140        0.16402
C          1.19811       -6.15564        1.00324
C         -0.63243       -5.79145       -0.53319
C          1.41136       -4.80379        1.18248
H          1.87085       -6.82152        1.56748
C         -0.40942       -4.37864       -0.34514
C          0.60957       -3.83803        0.51035
C         -1.21033       -3.41306       -1.01645
C          0.83080       -2.42647        0.69688
C         -0.99986       -2.05935       -0.83904
C          0.00000       -1.47822        0.00000
H         -1.67348       -1.39478       -1.40374
C         -1.73628       -6.18799       -1.46183
C         -2.30618       -3.79816       -1.93612
N         -2.49160       -5.17000       -2.09392
C          2.51031       -4.42499        2.10453
C          1.93615       -2.03663        1.62538
N          2.69145       -3.04916        2.25787
O         -2.03422       -7.35313       -1.71556
O         -3.01404       -2.98685       -2.52886
O          3.20962       -5.24895        2.69039
O          2.25153       -0.87883        1.89188
C         -3.57303       -5.56380       -3.00271
H         -3.60693       -6.66409       -3.03266
H         -3.38289       -5.14710       -4.01033
H         -4.53313       -5.14879       -2.64071
C          3.75683       -2.58749        3.15241
H          4.24978       -3.48333        3.56465
H          3.32876       -1.96497        3.96090
H          4.47771       -1.96293        2.59142
C          0.00000        0.00000        0.00000
S          0.13753        0.78116        1.58053
C          0.42190        2.39399        0.90491
C          0.17313        0.98286       -0.98540
C          0.40229        2.28306       -0.49353
H          0.13224        0.75079       -2.05993
H          0.55520        3.15062       -1.15259
H          0.57474        3.26131        1.55602
H         -0.46162       -7.36159        0.78331
H          0.69398       -7.36119       -0.59268
H         -0.69462       -1.47883        0.82699
