41
hydrogenated-rotation-run/Dimethyl_Naphthalene_Dicarboximide_Phi_60_Theta_0_Thiophene_Hydrogenated.out
C          1.16918       -6.63924       -0.25693
C          1.06734       -6.06240       -1.56268
C          1.00377       -5.70380        0.82720
C          0.83282       -4.73104       -1.84125
H          1.18278       -6.71819       -2.44071
C          0.75914       -4.31233        0.53549
C          0.66561       -3.77988       -0.79500
C          0.59202       -3.36132        1.58053
C          0.42117       -2.38964       -1.08437
C          0.35756       -2.02807        1.30526
C          0.25669       -1.45576        0.00000
H          0.24257       -1.37353        2.18427
C          1.07082       -6.09463        2.26972
C          0.65879       -3.74059        3.01115
N          0.89533       -5.09189        3.25462
C          0.76698       -4.35801       -3.27577
C          0.35422       -2.00559       -2.52795
N          0.52909       -3.00290       -3.51310
O          1.27034       -7.24257        2.66105
O          0.51883       -2.94145        3.93441
O          0.90935       -5.16958       -4.18806
O          0.15458       -0.86513       -2.94084
C          0.96269       -5.47988        4.66721
H          1.15262       -6.56365        4.71242
H          0.00981       -5.22477        5.16923
H          1.77148       -4.91585        5.16999
C          0.44935       -2.54817       -4.90423
H          0.60387       -3.43059       -5.54683
H          1.22217       -1.77978       -5.09600
H         -0.53864       -2.08819       -5.09586
C          0.00000        0.00000        0.00000
S          0.60747        0.50999        1.58053
C          1.86202        1.56272        0.90491
C          0.76440        0.64162       -0.98540
C          1.77570        1.49033       -0.49353
H          0.58390        0.49013       -2.05993
H          2.45048        2.05664       -1.15259
H          2.53661        2.12887        1.55602
H          2.16148       -7.09403       -0.14988
H          0.39183       -7.40566       -0.15066
H          1.32039       -1.26882        0.00053
