41
hydrogenated-rotation-run/Dimethyl_Naphthalene_Dicarboximide_Phi_10_Theta_160_Thiophene_Hydrogenated.out
C          0.08926       -6.74140        0.24093
C          0.53597       -6.15564        1.46789
C         -0.28110       -5.79145       -0.77797
C          0.63104       -4.80379        1.72974
H          0.83646       -6.82152        2.29290
C         -0.18199       -4.37864       -0.50361
C          0.27272       -3.83803        0.74676
C         -0.53995       -3.41306       -1.48544
C          0.37105       -2.42647        1.01892
C         -0.44638       -2.05935       -1.22656
C          0.00000       -1.47822        0.00000
H         -0.74741       -1.39478       -2.05241
C         -0.77275       -6.18799       -2.13413
C         -1.02915       -3.79816       -2.82982
N         -1.11083       -5.17000       -3.05918
C          1.12173       -4.42499        3.07773
C          0.86407       -2.03663        2.37569
N          1.20193       -3.04916        3.30110
O         -0.90391       -7.35313       -2.50283
O         -1.34581       -2.98685       -3.69708
O          1.43442       -5.24895        3.93475
O          1.00394       -0.87883        2.76418
C         -1.59298       -5.56380       -4.38694
H         -1.60737       -6.66409       -4.42982
H         -0.92450       -5.14710       -5.16449
H         -2.60545       -5.14879       -4.55349
C          1.67731       -2.58749        4.60848
H          1.89809       -3.48333        5.21197
H          0.90234       -1.96497        5.09462
H          2.58210       -1.96293        4.48309
C          0.00000        0.00000        0.00000
S          0.13753        0.78116        1.58053
C          0.42190        2.39399        0.90491
C          0.17313        0.98286       -0.98540
C          0.40229        2.28306       -0.49353
H          0.13224        0.75079       -2.05993
H          0.55520        3.15062       -1.15259
H          0.57474        3.26131        1.55602
H         -0.79143       -7.36159        0.44756
H          0.89734       -7.36119       -0.16628
H         -1.01505       -1.47883        0.36888
