12
./Thiophene_Improper_Bend_Methyl_Phi_5.out
C          0.01046        0.39976        0.21448
S          0.01026       -0.39342       -1.36605
C          0.01023       -2.03113       -0.69043
C          0.01030       -0.59823        1.19988
C          0.01020       -1.91847        0.70801
H          0.01032       -0.36259        2.27441
H          0.01012       -2.79941        1.36707
C         -0.11837        1.87235        0.21448
H         -1.15654        2.17003        0.21448
H          0.35011        2.30185       -0.65871
H          0.35011        2.30185        1.08766
H          0.01015       -2.91181       -1.34155
