12
./Thiophene_Improper_Bend_Methyl_Phi_25.out
C          0.05044        0.41047        0.21448
S          0.05024       -0.38270       -1.36605
C          0.05021       -2.02042       -0.69043
C          0.05027       -0.58752        1.19988
C          0.05017       -1.90776        0.70801
H          0.05029       -0.35188        2.27441
H          0.05010       -2.78870        1.36707
C         -0.57428        1.75019        0.21448
H         -1.65165        1.67485        0.21448
H         -0.28095        2.31402       -0.65871
H         -0.28095        2.31402        1.08766
H          0.05013       -2.90110       -1.34155
