12
./Thiophene_Improper_Bend_Methyl_Phi_10.out
C          0.02077        0.40111        0.21448
S          0.02057       -0.39206       -1.36605
C          0.02054       -2.02977       -0.69043
C          0.02060       -0.59688        1.19988
C          0.02050       -1.91712        0.70801
H          0.02063       -0.36123        2.27441
H          0.02043       -2.79805        1.36707
C         -0.23592        1.85687        0.21448
H         -1.29608        2.06295        0.21448
H          0.19335        2.32557       -0.65871
H          0.19335        2.32557        1.08766
H          0.02046       -2.91045       -1.34155
