39

C	-0.086486	-6.741404	0.241938
C	-0.532960	-6.155638	1.468983
C	0.284733	-5.791452	-0.776651
C	-0.628455	-4.803786	1.730681
H	-0.833086	-6.821518	2.294130
C	0.184300	-4.378638	-0.502775
C	-0.271086	-3.838032	0.747353
C	0.541191	-3.413062	-1.484986
C	-0.370703	-2.426473	1.019042
C	0.446468	-2.059348	-1.226525
C	-0.000000	-1.478216	-0.000000
H	0.746717	-1.394783	-2.052666
C	0.779832	-6.187987	-2.131549
C	1.030596	-3.798164	-2.829295
N	1.115461	-5.170003	-3.057496
C	-1.119034	-4.424987	3.078712
C	-0.865151	-2.036627	2.375300
N	-1.201176	-3.049156	3.301374
O	0.916355	-7.353131	-2.498300
O	1.345486	-2.986854	-3.697195
O	-1.430379	-5.248946	3.936224
O	-1.007714	-0.878829	2.762805
C	1.599576	-5.563799	-4.384539
H	1.616121	-6.664085	-4.426636
H	2.611458	-5.147101	-4.550487
H	0.931037	-5.148785	-5.162921
C	-1.677382	-2.587487	4.608454
H	-1.896168	-3.483329	5.212668
H	-2.583531	-1.964972	4.482719
H	-0.903674	-1.962932	5.093988
H	-0.022586	-7.822318	0.067309
C	0.000000	0.000000	0.000000
S	0.396411	0.687007	1.580530
C	1.215245	2.105322	0.904911
C	0.498850	0.864369	-0.985400
C	1.158885	2.007781	-0.493528
H	0.381046	0.660280	-2.059934
H	1.599289	2.770727	-1.152593
H	1.655514	2.868056	1.556025
