39

C	-0.166281	-6.741404	-0.195868
C	-1.005696	-6.155638	-1.196048
C	0.530233	-5.791452	0.634911
C	-1.184587	-4.803786	-1.409599
H	-1.570232	-6.821518	-1.868538
C	0.343266	-4.378638	0.410996
C	-0.511683	-3.838032	-0.608444
C	1.015440	-3.413062	1.211179
C	-0.697165	-2.426473	-0.830559
C	0.838968	-2.059348	0.999915
C	-0.000000	-1.478216	-0.000000
H	1.404302	-1.394783	1.673009
C	1.456059	-6.187987	1.741129
C	1.934944	-3.798164	2.307170
N	2.090139	-5.170003	2.494766
C	-2.106725	-4.424987	-2.508468
C	-1.624494	-2.036627	-1.936893
N	-2.258486	-3.049156	-2.690936
O	1.705414	-7.353131	2.042736
O	2.529122	-2.986854	3.013823
O	-2.693680	-5.248946	-3.206857
O	-1.888802	-0.878829	-2.254108
C	2.997334	-5.563799	3.577543
H	3.025519	-6.664085	3.612920
H	2.635109	-5.147101	4.536833
H	4.005702	-5.148785	3.387762
C	-3.152347	-2.587487	-3.756883
H	-3.566218	-3.483329	-4.248464
H	-2.590383	-1.964972	-4.478763
H	-3.959687	-1.962932	-3.329599
H	-0.046998	-7.822318	-0.053215
C	0.000000	0.000000	0.000000
S	0.137535	0.781156	1.580530
C	0.421895	2.393994	0.904911
C	0.173134	0.982857	-0.985400
C	0.402294	2.283058	-0.493528
H	0.132237	0.750786	-2.059934
H	0.555196	3.150621	-1.152593
H	0.574741	3.261310	1.556025
