39

C	-0.253280	-6.741404	-0.043160
C	-1.539213	-6.155638	-0.269777
C	0.814295	-5.791452	0.145543
C	-1.813519	-4.803786	-0.318377
H	-2.403941	-6.821518	-0.422058
C	0.527140	-4.378638	0.094194
C	-0.783072	-3.838032	-0.137191
C	1.556403	-3.413062	0.275104
C	-1.067932	-2.426473	-0.188116
C	1.285420	-2.059348	0.226701
C	-0.000000	-1.478216	-0.000000
H	2.151147	-1.394783	0.378931
C	2.234582	-6.187987	0.397845
C	2.965273	-3.798164	0.523637
N	3.204744	-5.170003	0.567586
C	-3.226257	-4.424987	-0.567421
C	-2.489446	-2.036627	-0.439541
N	-3.459801	-3.049156	-0.609650
O	2.619468	-7.353131	0.468608
O	3.874668	-2.986854	0.683034
O	-4.124806	-5.248946	-0.725131
O	-2.895819	-0.878829	-0.512648
C	4.595691	-5.563799	0.813908
H	4.640022	-6.664085	0.822891
H	4.934830	-5.147101	1.781600
H	5.246157	-5.148785	0.020360
C	-4.829716	-2.587487	-0.851649
H	-5.462742	-3.483329	-0.962191
H	-4.863242	-1.964972	-1.765865
H	-5.173521	-1.962932	-0.005383
H	-0.070208	-7.822318	-0.010555
C	0.000000	0.000000	0.000000
S	0.607475	0.509994	1.580530
C	1.862020	1.562717	0.904911
C	0.764397	0.641624	-0.985400
C	1.775697	1.490335	-0.493528
H	0.583895	0.490135	-2.059934
H	2.450484	2.056643	-1.152593
H	2.536607	2.128872	1.556025
