42

C	0.255929	-8.519741	-0.092419
C	-0.666007	-7.635967	0.449364
S	1.592708	-7.651740	-0.885736
C	-0.332317	-6.261894	0.254813
H	-1.571741	-7.954738	0.980526
C	0.904324	-6.079985	-0.458965
C	1.385968	-4.798382	-0.767823
C	-1.118303	-5.153542	0.681909
C	-0.638514	-3.869626	0.369139
C	0.600871	-3.688927	-0.342916
O	-2.248132	-5.481075	1.368544
O	2.520275	-4.479871	-1.458570
C	3.639637	-5.356026	-1.405396
H	4.495304	-4.790496	-1.820940
H	3.490336	-6.268513	-2.023129
H	3.873314	-5.658187	-0.361595
C	-3.314934	-4.546999	1.480048
H	-4.171837	-5.107564	1.899255
H	-3.601473	-4.131473	0.490123
H	-3.068969	-3.712085	2.171521
C	0.930308	-2.314326	-0.537642
S	-1.334769	-2.295487	0.785807
C	0.000000	-1.435180	0.000000
H	1.836691	-1.993211	-1.066134
H	0.249906	-9.615985	-0.091781
C	0.000000	0.000000	0.000000
S	0.780044	0.447780	1.510732
C	2.143774	1.236372	0.727629
C	0.786529	0.454137	-1.064665
C	1.988499	1.149844	-0.678287
C	0.729864	0.419512	-2.486150
C	1.825177	1.052041	-3.106916
S	2.903877	1.678680	-1.965735
C	2.047896	1.175232	-4.559972
O	1.240953	0.705897	-5.350277
O	3.160791	1.814024	-5.004375
F	-0.233039	-0.140940	-3.246290
C	3.476510	1.984585	-6.334976
H	4.433735	2.536545	-6.370268
H	2.693835	2.561503	-6.875609
H	3.588239	1.011113	-6.861878
H	2.940569	1.696327	1.321510
