42

C	-0.135457	-8.519741	-0.235993
C	0.558188	-7.635967	0.577858
S	-1.148850	-7.651740	-1.414705
C	0.308648	-6.261894	0.283020
H	1.238560	-7.954738	1.377597
C	-0.609026	-6.079985	-0.810887
C	-0.996828	-4.798382	-1.231581
C	0.865740	-5.153542	0.982901
C	0.474408	-3.869626	0.564713
C	-0.442046	-3.688927	-0.532196
O	1.738137	-5.481075	1.976332
O	-1.874052	-4.479871	-2.228709
C	-2.016062	-5.356026	-3.340298
H	-2.573877	-4.790496	-4.110807
H	-2.598484	-6.268513	-3.085998
H	-1.028695	-5.658187	-3.751679
C	2.033195	-4.546999	3.007565
H	2.594833	-5.107564	3.778655
H	1.108067	-4.131473	3.461650
H	2.671451	-3.712085	2.645264
C	-0.691020	-2.314326	-0.822814
S	1.005649	-2.295487	1.178037
C	0.000000	-1.435180	0.000000
H	-1.368875	-1.993211	-1.623656
H	-0.133782	-9.615985	-0.230172
C	0.000000	0.000000	0.000000
S	0.080615	0.895811	1.510732
C	0.216842	2.465231	0.727629
C	0.079127	0.904769	-1.064665
C	0.198659	2.288406	-0.678287
C	0.074988	0.838492	-2.486150
C	0.185097	2.098524	-3.106916
S	0.290501	3.341568	-1.965735
C	0.211932	2.351623	-4.559972
O	0.133545	1.421416	-5.350277
O	0.326994	3.629649	-5.004375
F	-0.018214	-0.271734	-3.246290
C	0.368367	3.986101	-6.334976
H	0.465270	5.086806	-6.370268
H	-0.553140	3.675878	-6.875609
H	1.229874	3.519263	-6.861878
H	0.297091	3.381746	1.321510
