42

C	0.235993	-8.519741	-0.135457
C	-0.577858	-7.635967	0.558188
S	1.414705	-7.651740	-1.148850
C	-0.283020	-6.261894	0.308648
H	-1.377597	-7.954738	1.238560
C	0.810887	-6.079985	-0.609026
C	1.231581	-4.798382	-0.996828
C	-0.982901	-5.153542	0.865740
C	-0.564713	-3.869626	0.474408
C	0.532196	-3.688927	-0.442046
O	-1.976332	-5.481075	1.738137
O	2.228709	-4.479871	-1.874052
C	3.340298	-5.356026	-2.016062
H	4.110807	-4.790496	-2.573877
H	3.085998	-6.268513	-2.598484
H	3.751679	-5.658187	-1.028695
C	-3.007565	-4.546999	2.033195
H	-3.778655	-5.107564	2.594833
H	-3.461650	-4.131473	1.108067
H	-2.645264	-3.712085	2.671451
C	0.822814	-2.314326	-0.691020
S	-1.178037	-2.295487	1.005649
C	0.000000	-1.435180	0.000000
H	1.623656	-1.993211	-1.368875
H	0.230172	-9.615985	-0.133782
C	0.000000	0.000000	0.000000
S	0.234946	0.868203	1.510732
C	0.641630	2.390125	0.727629
C	0.235036	0.877284	-1.064665
C	0.593019	2.219143	-0.678287
C	0.219452	0.812732	-2.486150
C	0.546689	2.034501	-3.106916
S	0.866345	3.240357	-1.965735
C	0.617067	2.279095	-4.559972
O	0.378342	1.376631	-5.350277
O	0.952308	3.517725	-5.004375
F	-0.065123	-0.264443	-3.246290
C	1.054950	3.861577	-6.334976
H	1.341516	4.928732	-6.370268
H	0.093573	3.716085	-6.875609
H	1.822303	3.252232	-6.861878
H	0.879812	3.278780	1.321510
