42

C	-0.208002	-8.519741	-0.175432
C	0.722164	-7.635967	0.352097
S	-1.563424	-7.651740	-0.936458
C	0.386833	-6.261894	0.160388
H	1.635031	-7.954738	0.870905
C	-0.849637	-6.079985	-0.553685
C	-1.357938	-4.798382	-0.816372
C	1.149702	-5.153542	0.627524
C	0.638941	-3.869626	0.368399
C	-0.597409	-3.688927	-0.348912
O	2.309260	-5.481075	1.262667
O	-2.523296	-4.479871	-1.453338
C	-3.036927	-5.356026	-2.449320
H	-3.824632	-4.790496	-2.982577
H	-3.497250	-6.268513	-2.011155
H	-2.249807	-5.658187	-3.173591
C	2.939226	-4.546999	2.130793
H	3.730721	-5.107564	2.663289
H	2.225196	-4.131473	2.873906
H	3.415077	-3.712085	1.572045
C	-0.930765	-2.314326	-0.536849
S	1.347913	-2.295487	0.763041
C	0.000000	-1.435180	0.000000
H	-1.841645	-1.993211	-1.057554
H	-0.204438	-9.615985	-0.170535
C	0.000000	0.000000	0.000000
S	0.780044	0.447780	1.510732
C	2.143774	1.236372	0.727629
C	0.786529	0.454137	-1.064665
C	1.988499	1.149844	-0.678287
C	0.729864	0.419512	-2.486150
C	1.825177	1.052041	-3.106916
S	2.903877	1.678680	-1.965735
C	2.047896	1.175232	-4.559972
O	1.240953	0.705897	-5.350277
O	3.160791	1.814024	-5.004375
F	-0.233039	-0.140940	-3.246290
C	3.476510	1.984585	-6.334976
H	4.433735	2.536545	-6.370268
H	2.693835	2.561503	-6.875609
H	3.588239	1.011113	-6.861878
H	2.940569	1.696327	1.321510
