42

C	-0.272104	-8.519741	-0.000687
C	0.779533	-7.635967	-0.194476
S	-1.799596	-7.651740	0.287581
C	0.399427	-6.261894	-0.125787
H	1.812314	-7.954738	-0.383826
C	-1.006762	-6.079985	0.121989
C	-1.564994	-4.798382	0.247488
C	1.284087	-5.153542	-0.258303
C	0.726260	-3.869626	-0.128493
C	-0.681918	-3.688927	0.116725
O	2.580622	-5.481075	-0.517104
O	-2.867144	-4.479871	0.508622
C	-3.900814	-5.356026	0.075811
H	-4.847002	-4.790496	0.173640
H	-3.971794	-6.268513	0.707354
H	-3.763397	-5.658187	-0.984963
C	3.621225	-4.546999	-0.257016
H	4.569828	-5.107564	-0.357864
H	3.551910	-4.131473	0.771211
H	3.626592	-3.712085	-0.990913
C	-1.058088	-2.314326	0.187034
S	1.523035	-2.295487	-0.281899
C	0.000000	-1.435180	0.000000
H	-2.090565	-1.993211	0.373653
H	-0.266226	-9.615985	0.000773
C	0.000000	0.000000	0.000000
S	0.002233	0.899428	1.510732
C	0.001157	2.474749	0.727629
C	-0.000030	0.908223	-1.064665
C	-0.001545	2.297013	-0.678287
C	0.001624	0.841837	-2.486150
C	0.001494	2.106670	-3.106916
S	-0.001841	3.354171	-1.965735
C	0.006168	2.361146	-4.559972
O	0.009152	1.427646	-5.350277
O	0.009405	3.644337	-5.004375
F	0.005539	-0.272288	-3.246290
C	0.019554	4.003038	-6.334976
H	0.020155	5.108000	-6.370268
H	-0.871409	3.613681	-6.875609
H	0.918470	3.613062	-6.861878
H	0.001222	3.394771	1.321510
