42

C	0.175432	-8.519741	-0.208002
C	-0.352097	-7.635967	0.722164
S	0.936458	-7.651740	-1.563424
C	-0.160388	-6.261894	0.386833
H	-0.870905	-7.954738	1.635031
C	0.553685	-6.079985	-0.849637
C	0.816372	-4.798382	-1.357938
C	-0.627524	-5.153542	1.149702
C	-0.368399	-3.869626	0.638941
C	0.348912	-3.688927	-0.597409
O	-1.262667	-5.481075	2.309260
O	1.453338	-4.479871	-2.523296
C	2.449320	-5.356026	-3.036927
H	2.982577	-4.790496	-3.824632
H	2.011155	-6.268513	-3.497250
H	3.173591	-5.658187	-2.249807
C	-2.130793	-4.546999	2.939226
H	-2.663289	-5.107564	3.730721
H	-2.873906	-4.131473	2.225196
H	-1.572045	-3.712085	3.415077
C	0.536849	-2.314326	-0.930765
S	-0.763041	-2.295487	1.347913
C	0.000000	-1.435180	0.000000
H	1.057554	-1.993211	-1.841645
H	0.170535	-9.615985	-0.204438
C	0.000000	0.000000	0.000000
S	0.158383	0.885376	1.510732
C	0.430876	2.436951	0.727629
C	0.157682	0.894430	-1.064665
C	0.397351	2.262384	-0.678287
C	0.147783	0.828765	-2.486150
C	0.367291	2.074406	-3.106916
S	0.580633	3.303533	-1.965735
C	0.416083	2.324204	-4.559972
O	0.256921	1.404367	-5.350277
O	0.642094	3.587338	-5.004375
F	-0.041828	-0.269113	-3.246290
C	0.714377	3.938827	-6.334976
H	0.906844	5.026898	-6.370268
H	-0.230661	3.710099	-6.875609
H	1.531918	3.398681	-6.861878
H	0.590699	3.342984	1.321510
