42

C	-0.267851	-8.519741	-0.047927
C	0.801461	-7.635967	-0.056157
S	-1.822194	-7.651740	-0.029285
C	0.415201	-6.261894	-0.054516
H	1.851431	-7.954738	-0.063290
C	-1.012650	-6.079985	-0.054687
C	-1.584194	-4.798382	-0.028030
C	1.309433	-5.153542	-0.031399
C	0.737539	-3.869626	-0.000427
C	-0.691828	-3.688927	-0.003462
O	2.631211	-5.481075	-0.061128
O	-2.911907	-4.479871	0.003021
C	-3.854716	-5.356026	-0.602710
H	-4.803517	-4.790496	-0.670671
H	-4.034285	-6.268513	0.006913
H	-3.535185	-5.658187	-1.623507
C	3.610841	-4.546999	0.375708
H	4.562544	-5.107564	0.441115
H	3.364029	-4.131473	1.376277
H	3.743566	-3.712085	-0.346107
C	-1.074491	-2.314326	0.000458
S	1.548848	-2.295487	-0.013144
C	0.000000	-1.435180	0.000000
H	-2.123688	-1.993211	0.004953
H	-0.262315	-9.615985	-0.045468
C	0.000000	0.000000	0.000000
S	0.309721	0.844422	1.510732
C	0.847502	2.325108	0.727629
C	0.310602	0.853460	-1.064665
C	0.784173	2.159014	-0.678287
C	0.289451	0.790512	-2.486150
C	0.721927	1.979112	-3.106916
S	1.145464	3.152519	-1.965735
C	0.813355	2.216642	-4.559972
O	0.496884	1.338418	-5.350277
O	1.255274	3.421340	-5.004375
F	-0.087923	-0.257761	-3.246290
C	1.387494	3.754937	-6.334976
H	1.765978	4.793056	-6.370268
H	0.417095	3.693789	-6.875609
H	2.098820	3.081033	-6.861878
H	1.162229	3.189623	1.321510
