42

C	-0.268090	-8.519741	0.046574
C	0.733920	-7.635967	-0.326886
S	-1.722318	-7.651740	0.595708
C	0.371516	-6.261894	-0.193236
H	1.718130	-7.954738	-0.692700
C	-0.970283	-6.079985	0.294958
C	-1.498243	-4.798382	0.515487
C	1.219725	-5.153542	-0.477358
C	0.692914	-3.869626	-0.252655
C	-0.651289	-3.688927	0.233366
O	2.451623	-5.481075	-0.957369
O	-2.735264	-4.479871	0.998769
C	-3.828387	-5.356026	0.752029
H	-4.743213	-4.790496	1.012675
H	-3.788623	-6.268513	1.386303
H	-3.877260	-5.658187	-0.316492
C	3.521580	-4.546999	-0.881930
H	4.438260	-5.107564	-1.145969
H	3.631868	-4.131473	0.142712
H	3.399425	-3.712085	-1.605610
C	-1.009535	-2.314326	0.367928
S	1.450945	-2.295487	-0.542088
C	-0.000000	-1.435180	-0.000000
H	-1.993920	-1.993211	0.730999
H	-0.262047	-9.615985	0.046991
C	0.000000	0.000000	0.000000
S	0.579852	0.687566	1.510732
C	1.591625	1.895024	0.727629
C	0.583771	0.695758	-1.064665
C	1.475308	1.760606	-0.678287
C	0.542366	0.643841	-2.486150
C	1.355286	1.612843	-3.106916
S	2.154609	2.570627	-1.965735
C	1.522440	1.804778	-4.559972
O	0.924684	1.087757	-5.350277
O	2.349739	2.785679	-5.004375
F	-0.170780	-0.212144	-3.246290
C	2.588082	3.053936	-6.334976
H	3.298799	3.899999	-6.370268
H	1.655291	3.328371	-6.875609
H	3.026021	2.177385	-6.861878
H	2.183053	2.599759	1.321510
