42

C	0.093711	-8.519741	-0.255459
C	-0.083869	-7.635967	0.799036
S	0.345260	-7.651740	-1.789425
C	-0.018411	-6.261894	0.418360
H	-0.259169	-7.954738	1.834294
C	0.229701	-6.079985	-0.987769
C	0.302697	-4.798382	-1.555260
C	-0.196459	-5.153542	1.294992
C	-0.127651	-3.869626	0.726408
C	0.123544	-3.688927	-0.680716
O	-0.396706	-5.481075	2.601852
O	0.502673	-4.479871	-2.868193
C	1.262918	-5.356026	-3.691495
H	1.494604	-4.790496	-4.614080
H	0.693738	-6.268513	-3.974195
H	2.212720	-5.658187	-3.199559
C	-0.997016	-4.546999	3.490743
H	-1.226691	-5.107564	4.416630
H	-1.939526	-4.131473	3.073934
H	-0.309214	-3.712085	3.746794
C	0.186133	-2.314326	-1.058247
S	-0.256010	-2.295487	1.527599
C	0.000000	-1.435180	0.000000
H	0.363896	-1.993211	-2.092285
H	0.090328	-9.615985	-0.250435
C	0.000000	0.000000	0.000000
S	0.309721	0.844422	1.510732
C	0.847502	2.325108	0.727629
C	0.310602	0.853460	-1.064665
C	0.784173	2.159014	-0.678287
C	0.289451	0.790512	-2.486150
C	0.721927	1.979112	-3.106916
S	1.145464	3.152519	-1.965735
C	0.813355	2.216642	-4.559972
O	0.496884	1.338418	-5.350277
O	1.255274	3.421340	-5.004375
F	-0.087923	-0.257761	-3.246290
C	1.387494	3.754937	-6.334976
H	1.765978	4.793056	-6.370268
H	0.417095	3.693789	-6.875609
H	2.098820	3.081033	-6.861878
H	1.162229	3.189623	1.321510
