42

C	-0.175432	-8.519741	0.208002
C	0.352097	-7.635967	-0.722164
S	-0.936458	-7.651740	1.563424
C	0.160388	-6.261894	-0.386833
H	0.870905	-7.954738	-1.635031
C	-0.553685	-6.079985	0.849637
C	-0.816372	-4.798382	1.357938
C	0.627524	-5.153542	-1.149702
C	0.368399	-3.869626	-0.638941
C	-0.348912	-3.688927	0.597409
O	1.262667	-5.481075	-2.309260
O	-1.453338	-4.479871	2.523296
C	-2.449320	-5.356026	3.036927
H	-2.982577	-4.790496	3.824632
H	-2.011155	-6.268513	3.497250
H	-3.173591	-5.658187	2.249807
C	2.130793	-4.546999	-2.939226
H	2.663289	-5.107564	-3.730721
H	2.873906	-4.131473	-2.225196
H	1.572045	-3.712085	-3.415077
C	-0.536849	-2.314326	0.930765
S	0.763041	-2.295487	-1.347913
C	0.000000	-1.435180	0.000000
H	-1.057554	-1.993211	1.841645
H	-0.170535	-9.615985	0.204438
C	0.000000	0.000000	0.000000
S	0.451648	0.777811	1.510732
C	1.238377	2.142617	0.727629
C	0.454085	0.786559	-1.064665
C	1.147169	1.990043	-0.678287
C	0.422325	0.728240	-2.486150
C	1.054629	1.823683	-3.106916
S	1.675491	2.905718	-1.965735
C	1.185914	2.041729	-4.559972
O	0.721749	1.231802	-5.350277
O	1.830313	3.151386	-5.004375
F	-0.131347	-0.238577	-3.246290
C	2.018453	3.456956	-6.334976
H	2.571455	4.413580	-6.370268
H	1.052178	3.565244	-6.875609
H	2.601950	2.669768	-6.861878
H	1.698444	2.939346	1.321510
