42

C	0.047927	-8.519741	-0.267851
C	0.056157	-7.635967	0.801461
S	0.029285	-7.651740	-1.822194
C	0.054516	-6.261894	0.415201
H	0.063290	-7.954738	1.851431
C	0.054687	-6.079985	-1.012650
C	0.028030	-4.798382	-1.584194
C	0.031399	-5.153542	1.309433
C	0.000427	-3.869626	0.737539
C	0.003462	-3.688927	-0.691828
O	0.061128	-5.481075	2.631211
O	-0.003021	-4.479871	-2.911907
C	0.602710	-5.356026	-3.854716
H	0.670671	-4.790496	-4.803517
H	-0.006913	-6.268513	-4.034285
H	1.623507	-5.658187	-3.535185
C	-0.375708	-4.546999	3.610841
H	-0.441115	-5.107564	4.562544
H	-1.376277	-4.131473	3.364029
H	0.346107	-3.712085	3.743566
C	-0.000458	-2.314326	-1.074491
S	0.013144	-2.295487	1.548848
C	0.000000	-1.435180	0.000000
H	-0.004953	-1.993211	-2.123688
H	0.045468	-9.615985	-0.262315
C	0.000000	0.000000	0.000000
S	0.451648	0.777811	1.510732
C	1.238377	2.142617	0.727629
C	0.454085	0.786559	-1.064665
C	1.147169	1.990043	-0.678287
C	0.422325	0.728240	-2.486150
C	1.054629	1.823683	-3.106916
S	1.675491	2.905718	-1.965735
C	1.185914	2.041729	-4.559972
O	0.721749	1.231802	-5.350277
O	1.830313	3.151386	-5.004375
F	-0.131347	-0.238577	-3.246290
C	2.018453	3.456956	-6.334976
H	2.571455	4.413580	-6.370268
H	1.052178	3.565244	-6.875609
H	2.601950	2.669768	-6.861878
H	1.698444	2.939346	1.321510
