42

C	-0.135457	-8.519741	-0.235993
C	0.558188	-7.635967	0.577858
S	-1.148850	-7.651740	-1.414705
C	0.308648	-6.261894	0.283020
H	1.238560	-7.954738	1.377597
C	-0.609026	-6.079985	-0.810887
C	-0.996828	-4.798382	-1.231581
C	0.865740	-5.153542	0.982901
C	0.474408	-3.869626	0.564713
C	-0.442046	-3.688927	-0.532196
O	1.738137	-5.481075	1.976332
O	-1.874052	-4.479871	-2.228709
C	-2.016062	-5.356026	-3.340298
H	-2.573877	-4.790496	-4.110807
H	-2.598484	-6.268513	-3.085998
H	-1.028695	-5.658187	-3.751679
C	2.033195	-4.546999	3.007565
H	2.594833	-5.107564	3.778655
H	1.108067	-4.131473	3.461650
H	2.671451	-3.712085	2.645264
C	-0.691020	-2.314326	-0.822814
S	1.005649	-2.295487	1.178037
C	0.000000	-1.435180	0.000000
H	-1.368875	-1.993211	-1.623656
H	-0.133782	-9.615985	-0.230172
C	0.000000	0.000000	0.000000
S	0.309721	0.844422	1.510732
C	0.847502	2.325108	0.727629
C	0.310602	0.853460	-1.064665
C	0.784173	2.159014	-0.678287
C	0.289451	0.790512	-2.486150
C	0.721927	1.979112	-3.106916
S	1.145464	3.152519	-1.965735
C	0.813355	2.216642	-4.559972
O	0.496884	1.338418	-5.350277
O	1.255274	3.421340	-5.004375
F	-0.087923	-0.257761	-3.246290
C	1.387494	3.754937	-6.334976
H	1.765978	4.793056	-6.370268
H	0.417095	3.693789	-6.875609
H	2.098820	3.081033	-6.861878
H	1.162229	3.189623	1.321510
