42

C	-0.235306	-8.519741	-0.136647
C	0.772334	-7.635967	0.221346
S	-1.702286	-7.651740	-0.650746
C	0.408807	-6.261894	0.090779
H	1.761423	-7.954738	0.573754
C	-0.932876	-6.079985	-0.397735
C	-1.479069	-4.798382	-0.568166
C	1.241204	-5.153542	0.418347
C	0.693206	-3.869626	0.251852
C	-0.648921	-3.688927	-0.239872
O	2.493437	-5.481075	0.842486
O	-2.737331	-4.479871	-0.993092
C	-3.416110	-5.356026	-1.884752
H	-4.284447	-4.790496	-2.273124
H	-3.793352	-6.268513	-1.373310
H	-2.766716	-5.658187	-2.734702
C	3.264581	-4.546999	1.588030
H	4.136519	-5.107564	1.974995
H	2.690439	-4.131473	2.443843
H	3.636177	-3.712085	0.955140
C	-1.009848	-2.314326	-0.367068
S	1.459936	-2.295487	0.517386
C	0.000000	-1.435180	0.000000
H	-1.997308	-1.993211	-0.721689
H	-0.230945	-9.615985	-0.132444
C	0.000000	0.000000	0.000000
S	0.309721	0.844422	1.510732
C	0.847502	2.325108	0.727629
C	0.310602	0.853460	-1.064665
C	0.784173	2.159014	-0.678287
C	0.289451	0.790512	-2.486150
C	0.721927	1.979112	-3.106916
S	1.145464	3.152519	-1.965735
C	0.813355	2.216642	-4.559972
O	0.496884	1.338418	-5.350277
O	1.255274	3.421340	-5.004375
F	-0.087923	-0.257761	-3.246290
C	1.387494	3.754937	-6.334976
H	1.765978	4.793056	-6.370268
H	0.417095	3.693789	-6.875609
H	2.098820	3.081033	-6.861878
H	1.162229	3.189623	1.321510
