42

C	-0.136647	-8.519741	0.235306
C	0.221346	-7.635967	-0.772334
S	-0.650746	-7.651740	1.702286
C	0.090779	-6.261894	-0.408807
H	0.573754	-7.954738	-1.761423
C	-0.397735	-6.079985	0.932876
C	-0.568166	-4.798382	1.479069
C	0.418347	-5.153542	-1.241204
C	0.251852	-3.869626	-0.693206
C	-0.239872	-3.688927	0.648921
O	0.842486	-5.481075	-2.493437
O	-0.993092	-4.479871	2.737331
C	-1.884752	-5.356026	3.416110
H	-2.273124	-4.790496	4.284447
H	-1.373310	-6.268513	3.793352
H	-2.734702	-5.658187	2.766716
C	1.588030	-4.546999	-3.264581
H	1.974995	-5.107564	-4.136519
H	2.443843	-4.131473	-2.690439
H	0.955140	-3.712085	-3.636177
C	-0.367068	-2.314326	1.009848
S	0.517386	-2.295487	-1.459936
C	-0.000000	-1.435180	-0.000000
H	-0.721689	-1.993211	1.997308
H	-0.132444	-9.615985	0.230945
C	0.000000	0.000000	0.000000
S	0.690437	0.576430	1.510732
C	1.896512	1.589852	0.727629
C	0.695720	0.583817	-1.064665
C	1.758621	1.477674	-0.678287
C	0.645928	0.539878	-2.486150
C	1.614763	1.352997	-3.106916
S	2.568261	2.157430	-1.965735
C	1.812707	1.512991	-4.559972
O	1.099523	0.910662	-5.350277
O	2.797769	2.335330	-5.004375
F	-0.205024	-0.179266	-3.246290
C	3.079074	2.558124	-6.334976
H	3.925910	3.267919	-6.370268
H	2.208109	2.990367	-6.875609
H	3.358147	1.618843	-6.861878
H	2.601331	2.181180	1.321510
