15
../methylated_dimer_scan_outputs/Methylthiophene_Phi_25_Theta_0_Methylthiophene_Hydrogenated_Improper.out
C         -0.24378       -0.53706        0.00076
C          0.04222        0.25764        1.11376
C          0.51352        1.56634        0.82136
H         -0.08928       -0.10746        2.14366
C          0.59782        1.79974       -0.56284
S          0.08472        0.37624       -1.46394
C          0.87432        2.56794        1.88316
H          0.72242        2.14654        2.89576
H          0.25702        3.48764        1.80886
H          1.93622        2.88274        1.80896
C         -0.11738       -1.98166        0.00076
H          0.95852       -1.88806        0.00076
H         -0.07098       -2.51476        0.93886
H         -0.05778       -2.66626       -0.83244
H          0.92232        2.70114       -1.09634
