15
../methylated_dimer_scan_outputs/Methylthiophene_Phi_15_Theta_0_Methylthiophene_Hydrogenated_Improper.out
C         -0.12933       -0.56730        0.00076
C          0.01427        0.26500        1.11376
C          0.25117        1.63570        0.82136
H         -0.05173       -0.11740        2.14366
C          0.29367        1.88020       -0.56284
S          0.03557        0.38920       -1.46394
C          0.43257        2.68470        1.88316
H          0.35617        2.24330        2.89576
H         -0.33503        3.48320        1.80886
H          1.42367        3.17910        1.80896
C         -0.00293       -2.01190        0.00076
H          1.07297       -1.91830        0.00076
H          0.04347       -2.54500        0.93886
H          0.05667       -2.69650       -0.83244
H          0.45677        2.82420       -1.09634
