15
../methylated_dimer_scan_outputs/Methylthiophene_Phi_0_Theta_0_Methylthiophene_Hydrogenated_Improper.out
C         -0.56617       -0.10798        0.00470
C          0.47073       -1.04438        0.00500
C          1.78303       -0.49828        0.00520
H          0.28103       -2.12848        0.00490
C          1.76933        0.90792        0.00500
S          0.11493        1.51182        0.00530
C          3.02663       -1.34348        0.00520
H          2.77493       -2.42178        0.00520
H          3.65733       -1.14848        0.89770
H          3.65743       -1.14858       -0.88720
C         -1.99097       -0.37808        0.00420
H         -1.99107       -0.37818       -1.07580
H         -2.34187       -1.39948        0.00430
H         -2.82127        0.31242        0.00430
H          2.61143        1.61032        0.00520
