15
../methylated_dimer_scan_outputs/Methylthiophene_Phi_30_Theta_0_Methylthiophene_Hydrogenated_Improper.out
C         -0.29860       -0.51459        0.00076
C          0.05560        0.25221        1.11376
C          0.63920        1.51481        0.82136
H         -0.10730       -0.10009        2.14366
C          0.74340        1.74001       -0.56284
S          0.10830        0.36661       -1.46394
C          1.08580        2.48121        1.88316
H          0.89780        2.07461        2.89576
H          0.55100        3.45111        1.80886
H          2.17120        2.70221        1.80896
C         -0.17220       -1.95919        0.00076
H          0.90370       -1.86559        0.00076
H         -0.12580       -2.49229        0.93886
H         -0.11260       -2.64379       -0.83244
H          1.14530        2.60961       -1.09634
