12

C 0.0000 0.0000 0.0000
S -0.0002 0.7932 1.5805
C -0.0002 2.4309 0.9049
C -0.0002 0.9980 -0.9854
C -0.0003 2.3182 -0.4935
H -0.0001 0.7623 -2.0599
H -0.0003 3.1992 -1.1526
C -0.0000 -1.4782 -0.0000
H -0.3689 -1.4788 -1.0150
H 0.9271 -1.9175 -0.3374
H -0.7639 -2.1892 0.2782
H -0.0003 3.3116 1.5560
